25

Pt         8.20625        0.53689       -2.20909
Pt         7.99321        3.04192       -1.75536
Pt        10.75550        0.33833       -1.26724
Pt         8.77275        0.77616        0.49875
Pt         8.84461        3.19902        0.84360
Pt        10.67440        3.18804       -1.17999
Pt        13.31550        0.59958       -0.55101
Pt        11.40700        0.74875        1.33505
Pt        11.51410        3.42222        1.40766
Pt        13.37460        3.33158       -0.59663
Pt        15.93510        0.73930        0.15625
Pt        14.02100        0.81114        2.08927
Pt        14.14070        3.28322        1.99535
Pt        16.03190        3.29019        0.01339
Pt        18.56910        0.75028        0.93947
Pt        16.56980        0.41281        2.77642
Pt        16.82530        3.16486        2.64734
Pt        18.68230        3.49400        0.62095
Pt        21.21670        0.74755        1.72232
Pt        19.13760        0.75876        3.56617
Pt        19.47350        3.36544        3.28118
Pt        21.31900        3.29114        1.27369
Pt        22.06140        0.57577        1.84419
Pt        21.65590        1.28914        4.42692
Pt        22.05860        3.92900        3.78594
