25

Au        -2.65930        0.94490       -1.62640
Au       -10.41770        1.83850       -0.25000
Au        -7.23300        1.98740        0.78250
Au         0.51250        1.62760       -1.15380
Au        -8.57840       -0.75250       -0.49830
Au        -6.51770       -0.87420        2.04690
Au        -3.46990       -2.32640       -2.12280
Au         1.54210       -2.08200        0.61250
Au         3.68870        2.16900       -0.62500
Au         4.47550       -0.68990        0.76980
Au       -11.55030       -1.34750        0.45410
Au        -9.51280        0.26950        2.46350
Au        -3.77010       -2.07570        1.05200
Au        -1.11740       -0.34300        0.88330
Au         1.78430        0.93370        1.73620
Au        -7.85510        1.75870       -2.40030
Au        -5.55950       -0.16220       -1.04170
Au        -4.00220        1.18300        1.40560
Au        -0.39940       -1.28370       -2.16430
Au         2.74870       -0.64380       -2.00560
Au        -9.69890       -3.66820       -1.20880
Au        -8.99000       -2.93900        1.87340
Au        -6.47300       -3.19880       -0.35250
Au        -1.19170       -3.62570       -0.12680
Au         1.57110       -3.82310       -2.09280
