25

Cu        10.87230        3.95880        7.31030
Cu        12.95530        2.73810        8.32540
Cu        11.64200        3.62690        4.79920
Cu        10.24620        1.72130        6.09470
Cu        12.31890        0.61780        7.12060
Cu        13.82080        2.50020        5.91180
Cu        13.07520        3.10300        2.81560
Cu        11.22180        1.44870        3.63810
Cu        13.23340        0.30840        4.71890
Cu        15.06810        1.87180        3.84200
Cu        13.43490        3.07640        0.31880
Cu        12.32010        1.01160        1.37950
Cu        14.40520       -0.12420        2.33750
Cu        15.67040        1.92680        1.28100
Cu        15.03320        2.75620       -1.58910
Cu        13.35220        0.85530       -0.95360
Cu        15.29040       -0.42370        0.06310
Cu        16.99830        1.37950       -0.96710
Cu        15.38150        3.45190       -3.89820
Cu        14.36620        1.01710       -3.43500
Cu        16.75580       -0.04670       -3.15670
Cu        17.84500        2.35790       -3.34670
Cu        17.02220        3.21980       -5.59920
Cu        14.95490        1.79370       -5.83710
Cu        17.38730        0.75910       -5.48330
