25

Ag        21.53070        0.21943       -5.62815
Ag        21.55840       -0.60281       -2.71513
Ag        21.32540       -0.40908       -2.80483
Ag        21.08610       -1.54265       -0.06551
Ag        20.83950       -1.13561       -0.20137
Ag        20.30200       -2.09216        2.53670
Ag        20.07060       -1.71180        2.60039
Ag        19.49740       -2.24229        5.28261
Ag        19.15300       -1.90270        5.54715
Ag        18.90720       -2.05937        8.10689
Ag        19.00900       -2.02015        8.29262
Ag        21.15410        0.58112       -8.28866
Ag        21.25950        0.20616       -3.23933
Ag        20.55890        0.33742       -4.34221
Ag        20.59840       -0.05099       -0.20868
Ag        20.41690        0.32417       -0.14901
Ag        19.78220       -0.60133        2.49340
Ag        19.52410       -0.37373        2.45646
Ag        19.18320       -1.35993        5.18140
Ag        19.31370       -0.41178       -0.41136
Ag        19.13560       -1.45843        2.10618
Ag        18.84480       -0.80590        2.72427
Ag        18.92520       -1.52605        6.02665
Ag        18.68920       -1.16620       -0.32849
Ag        19.03440       -1.82044        3.86452
