25

Au        11.05040        3.93970       -1.46000
Au        10.76260        1.50030       -1.74970
Au        13.35850        3.10600       -0.99340
Au        11.60760        2.09240        0.48800
Au        13.13030        1.28930       -2.61100
Au        12.82470        0.05960       -0.32280
Au        13.50670        3.04450       -0.76420
Au        14.75580        1.32750        0.66640
Au        13.85790        1.12790       -2.34370
Au        16.08650        0.60120       -1.34790
Au        15.99300        0.26580       -1.22760
Au        15.15770        1.49920        0.83360
Au        17.89690       -0.30250        0.22290
Au        15.76600       -0.79140        1.62810
Au        17.58820        1.91220        1.42730
Au        16.61840        0.64440        3.38800
Au        18.06780       -0.38070        0.58610
Au        18.48380       -1.02140        3.04150
Au        18.05290        1.83860        1.73900
Au        16.75100        0.71790        3.59240
Au        20.00560        0.94260        2.93690
Au        18.64000       -0.97450        3.83290
Au        18.57430        2.03300        4.75940
Au        19.33380        0.01600        6.03480
Au        20.31870        0.83670        3.29530
