96

Pt         3.41329        9.92258        4.00763
Pt         3.20025       12.42761        4.46136
Pt         5.96254        9.72402        4.94948
Pt         3.97979       10.16185        6.71547
Pt         4.05165       12.58471        7.06032
Pt         5.88144       12.57373        5.03673
Pt         8.52254        9.98527        5.66571
Pt         6.61404       10.13444        7.55177
Pt         6.72114       12.80791        7.62438
Pt         8.58164       12.71727        5.62009
Pt        11.14214       10.12499        6.37297
Pt         9.22804       10.19683        8.30599
Pt         9.34774       12.66891        8.21207
Pt        11.23894       12.67588        6.23011
Pt        13.77614       10.13597        7.15619
Pt        11.77684        9.79850        8.99314
Pt        12.03234       12.55055        8.86406
Pt        13.88934       12.87969        6.83767
Pt        16.42374       10.13324        7.93904
Pt        14.34464       10.14445        9.78289
Pt        14.68054       12.75113        9.49790
Pt        16.52604       12.67683        7.49041
Pt        17.26844        9.96146        8.06091
Pt        16.86294       10.67483       10.64364
Pt        17.26564       13.31469       10.00266
C          1.32210       -0.95260        0.11300
C          2.59830       -0.56330        0.23870
C          3.10410        0.47440        1.18030
C          2.29370        1.13500        2.03630
O          4.44460        0.72070        1.13150
C          5.15710        1.59110        1.93810
C          6.67030        1.57890        1.58540
C          7.23420        0.13500        1.69230
C          6.89750        2.11890        0.14580
C          7.40350        2.50880        2.59000
O          8.76310        2.53100        2.34090
C          9.65640        3.25560        3.05940
O          9.28670        3.95080        3.99680
C         11.08530        3.18950        2.68950
C         12.03270        3.87000        3.34340
O          6.22950        1.31000       -0.80220
C          6.78030        1.50890       -2.08850
C          5.94350        0.76390       -3.16430
C          5.83690       -0.74360       -2.80660
C          4.52050        1.38190       -3.26600
O          3.80450        1.25430       -2.06500
C          6.65560        0.93220       -4.53340
O          5.95990        0.27940       -5.53390
C          6.34430        0.25230       -6.83430
O          7.36270        0.82720       -7.19650
C          5.51070       -0.48490       -7.80610
C          5.81530       -0.56330       -9.10590
O          7.09210       -1.31510       -2.71740
C          7.31460       -2.61510       -2.40170
O          6.37910       -3.37240       -2.17840
C          8.70850       -3.09880       -2.32740
C          9.01880       -4.36250       -2.01930
O          7.06170       -0.36550        2.96880
C          7.45360       -1.60440        3.35760
O          7.99800       -2.36400        2.56660
C          7.21000       -2.02060        4.75400
C          7.56280       -3.22300        5.22100
H          1.06940       -1.72150       -0.61010
H          0.51440       -0.53710        0.70060
H          3.32990       -1.04620       -0.40150
H          1.22900        0.95350        2.09150
H          2.67600        1.88700        2.71670
H          5.02320        1.27990        2.99820
H          4.75770        2.62330        1.82180
H          8.31820        0.13200        1.44010
H          6.71610       -0.53140        0.96710
H          7.99820        2.13530       -0.04050
H          6.50870        3.15950        0.07390
H          7.23140        2.15370        3.63090
H          6.99830        3.54260        2.50850
H         11.37540        2.56170        1.85210
H         11.79200        4.51030        4.18650
H         13.06920        3.78770        3.03250
H          7.81900        1.10510       -2.10460
H          6.80740        2.59370       -2.34790
H          5.24160       -1.27810       -3.58010
H          5.31560       -0.86570       -1.83240
H          3.93390        0.87410       -4.06130
H          4.58530        2.45370       -3.57130
H          3.85030        2.12910       -1.59780
H          7.68740        0.51820       -4.47870
H          6.73280        2.01380       -4.78610
H          4.61460       -0.98270       -7.44760
H          6.70030       -0.08260       -9.51130
H          5.17000       -1.11760       -9.77970
H          9.51200       -2.39720       -2.53100
H          8.25070       -5.10000       -1.80740
H         10.05900       -4.66870       -1.97720
H          6.72440       -1.31980        5.42650
H          8.05050       -3.95730        4.58720
H          7.36170       -3.48120        6.25570
