96

C         22.35012        5.41539        5.33170
C         23.62649        5.80409        5.45753
C         24.13358        6.83725        6.40342
C         23.32435        7.49372        7.26369
O         25.47401        7.08378        6.35397
C         26.18761        7.95030        7.16378
C         27.70033        7.93980        6.80896
C         28.26437        6.49540        6.90814
C         27.92557        8.48672        5.37166
C         28.43490        8.86486        7.81702
O         29.79416        8.88826        7.56617
C         30.68844        9.60940        8.28693
O         30.32003       10.30008        9.22817
C         32.11684        9.54508        7.91477
C         33.06513       10.22243        8.57064
O         27.25627        7.68238        4.42070
C         27.80532        7.88747        3.13462
C         26.96705        7.14765        2.05639
C         26.86093        5.63845        2.40698
C         25.54391        7.76613        1.95960
O         24.82955        7.63275        3.16095
C         27.67728        7.32254        0.68714
O         26.98021        6.67456       -0.31553
C         27.36284        6.65371       -1.61657
O         28.38075        7.23035       -1.97739
C         26.52791        5.92119       -2.59077
C         26.83074        5.84905       -3.89135
O         28.11625        5.06653        2.49172
C         28.33918        3.76503        2.80085
O         27.40398        3.00666        3.02179
C         29.73318        3.28098        2.87093
C         30.04389        2.01581        3.17252
O         28.09361        5.98877        8.18245
C         28.48604        4.74801        8.56475
O         29.02936        3.99223        7.76937
C         28.24434        4.32510        9.95947
C         28.59777        3.12047       10.42020
H         22.09643        4.64998        4.60525
H         21.54322        5.82806        5.92239
H         24.35721        5.32427        4.81401
H         22.25972        7.31195        7.31947
H         23.70758        8.24244        7.94718
H         26.05516        7.63400        8.22255
H         25.78806        8.98304        7.05299
H         29.34803        6.49362        6.65445
H         27.74528        5.83250        6.18045
H         29.02601        8.50402        5.18394
H         27.53667        9.52765        5.30530
H         28.26422        8.50475        8.85643
H         28.02960        9.89904        7.74104
H         32.40579        8.92132        7.07396
H         32.82558       10.85867        9.41714
H         34.10121       10.14163        8.25793
H         28.84399        7.48376        3.11516
H         27.83207        8.97351        2.88040
H         26.26458        5.10767        1.63173
H         26.34096        5.51166        3.38129
H         24.95623        7.26216        1.16267
H         25.60830        8.83939        1.65937
H         24.87599        8.50529        3.63229
H         28.70915        6.90828        0.73844
H         27.75414        8.40534        0.43954
H         25.63230        5.42167       -2.23345
H         27.71519        6.33169       -4.29564
H         26.18452        5.29799       -4.56692
H         30.53640        3.98355        2.66961
H         29.27608        1.27730        3.38192
H         31.08415        1.70942        3.21173
H         27.75966        5.02265       10.63599
H         29.08461        2.38923        9.78221
H         28.39809        2.85729       11.45392
Ag        21.53070        0.21943       -5.62815
Ag        21.55840       -0.60281       -2.71513
Ag        21.32540       -0.40908       -2.80483
Ag        21.08610       -1.54265       -0.06551
Ag        20.83950       -1.13561       -0.20137
Ag        20.30200       -2.09216        2.53670
Ag        20.07060       -1.71180        2.60039
Ag        19.49740       -2.24229        5.28261
Ag        19.15300       -1.90270        5.54715
Ag        18.90720       -2.05937        8.10689
Ag        19.00900       -2.02015        8.29262
Ag        21.15410        0.58112       -8.28866
Ag        21.25950        0.20616       -3.23933
Ag        20.55890        0.33742       -4.34221
Ag        20.59840       -0.05099       -0.20868
Ag        20.41690        0.32417       -0.14901
Ag        19.78220       -0.60133        2.49340
Ag        19.52410       -0.37373        2.45646
Ag        19.18320       -1.35993        5.18140
Ag        19.31370       -0.41178       -0.41136
Ag        19.13560       -1.45843        2.10618
Ag        18.84480       -0.80590        2.72427
Ag        18.92520       -1.52605        6.02665
Ag        18.68920       -1.16620       -0.32849
Ag        19.03440       -1.82044        3.86452
