96

Au        -9.14857       12.80512       -6.07460
Au        -9.43637       10.36572       -6.36430
Au        -6.84047       11.97142       -5.60800
Au        -8.59137       10.95782       -4.12660
Au        -7.06867       10.15472       -7.22560
Au        -7.37427        8.92502       -4.93740
Au        -6.69227       11.90992       -5.37880
Au        -5.44317       10.19292       -3.94820
Au        -6.34107        9.99332       -6.95830
Au        -4.11247        9.46662       -5.96250
Au        -4.20597        9.13122       -5.84220
Au        -5.04127       10.36462       -3.78100
Au        -2.30207        8.56292       -4.39170
Au        -4.43297        8.07402       -2.98650
Au        -2.61077       10.77762       -3.18730
Au        -3.58057        9.50982       -1.22660
Au        -2.13117        8.48472       -4.02850
Au        -1.71517        7.84402       -1.57310
Au        -2.14607       10.70402       -2.87560
Au        -3.44797        9.58332       -1.02220
Au        -0.19337        9.80802       -1.67770
Au        -1.55897        7.89092       -0.78170
Au        -1.62467       10.89842        0.14480
Au        -0.86517        8.88142        1.42020
Au         0.11973        9.70212       -1.31930
C          1.32210       -0.95260        0.11300
C          2.59830       -0.56330        0.23870
C          3.10410        0.47440        1.18030
C          2.29370        1.13500        2.03630
O          4.44460        0.72070        1.13150
C          5.15710        1.59110        1.93810
C          6.67030        1.57890        1.58540
C          7.23420        0.13500        1.69230
C          6.89750        2.11890        0.14580
C          7.40350        2.50880        2.59000
O          8.76310        2.53100        2.34090
C          9.65640        3.25560        3.05940
O          9.28670        3.95080        3.99680
C         11.08530        3.18950        2.68950
C         12.03270        3.87000        3.34340
O          6.22950        1.31000       -0.80220
C          6.78030        1.50890       -2.08850
C          5.94350        0.76390       -3.16430
C          5.83690       -0.74360       -2.80660
C          4.52050        1.38190       -3.26600
O          3.80450        1.25430       -2.06500
C          6.65560        0.93220       -4.53340
O          5.95990        0.27940       -5.53390
C          6.34430        0.25230       -6.83430
O          7.36270        0.82720       -7.19650
C          5.51070       -0.48490       -7.80610
C          5.81530       -0.56330       -9.10590
O          7.09210       -1.31510       -2.71740
C          7.31460       -2.61510       -2.40170
O          6.37910       -3.37240       -2.17840
C          8.70850       -3.09880       -2.32740
C          9.01880       -4.36250       -2.01930
O          7.06170       -0.36550        2.96880
C          7.45360       -1.60440        3.35760
O          7.99800       -2.36400        2.56660
C          7.21000       -2.02060        4.75400
C          7.56280       -3.22300        5.22100
H          1.06940       -1.72150       -0.61010
H          0.51440       -0.53710        0.70060
H          3.32990       -1.04620       -0.40150
H          1.22900        0.95350        2.09150
H          2.67600        1.88700        2.71670
H          5.02320        1.27990        2.99820
H          4.75770        2.62330        1.82180
H          8.31820        0.13200        1.44010
H          6.71610       -0.53140        0.96710
H          7.99820        2.13530       -0.04050
H          6.50870        3.15950        0.07390
H          7.23140        2.15370        3.63090
H          6.99830        3.54260        2.50850
H         11.37540        2.56170        1.85210
H         11.79200        4.51030        4.18650
H         13.06920        3.78770        3.03250
H          7.81900        1.10510       -2.10460
H          6.80740        2.59370       -2.34790
H          5.24160       -1.27810       -3.58010
H          5.31560       -0.86570       -1.83240
H          3.93390        0.87410       -4.06130
H          4.58530        2.45370       -3.57130
H          3.85030        2.12910       -1.59780
H          7.68740        0.51820       -4.47870
H          6.73280        2.01380       -4.78610
H          4.61460       -0.98270       -7.44760
H          6.70030       -0.08260       -9.51130
H          5.17000       -1.11760       -9.77970
H          9.51200       -2.39720       -2.53100
H          8.25070       -5.10000       -1.80740
H         10.05900       -4.66870       -1.97720
H          6.72440       -1.31980        5.42650
H          8.05050       -3.95730        4.58720
H          7.36170       -3.48120        6.25570
